tests/data/upgrade-models/M1/Lines.dss
New	Line.0x008F0780_0x008D8138	Bus1=0x008F0780.1	Bus2=0x008D8138.1	Length=0.0813589	phases=1	R1=1.12861	X1=0.33793	R0=3.38583	X0=1.01378	C0=0.000636619772367581	C1=0.000212206590789194
New	Line.0x008DDCF8_0x008DDB40	Bus1=0x008DDCF8.1	Bus2=0x008DDB40.1	Length=0.0384401	phases=1	R1=1.12861	X1=0.33793	R0=3.38583	X0=1.01378	C0=0.000636619772367581	C1=0.000212206590789194
New	Line.0x008CD1C0_0x008DCBC8	Bus1=0x008CD1C0.1	Bus2=0x008DCBC8.1	Length=0.020706	phases=1	R1=1.12861	X1=0.33793	R0=3.38583	X0=1.01378	C0=0.000636619772367581	C1=0.000212206590789194
New	Line.0x008E1248_0x008DEAC0	Bus1=0x008E1248.1	Bus2=0x008DEAC0.1	Length=0.0410587	phases=1	R1=1.12861	X1=0.33793	R0=3.38583	X0=1.01378	C0=0.000636619772367581	C1=0.000212206590789194
New	Line.0x008F3280_0x008F37A8	Bus1=0x008F3280.1	Bus2=0x008F37A8.1	Length=0.0342286	phases=1	R1=1.12861	X1=0.33793	R0=3.38583	X0=1.01378	C0=0.000636619772367581	C1=0.000212206590789194
New	Line.0x008DB8D8_0x008D9678	Bus1=0x008DB8D8.1	Bus2=0x008D9678.1	Length=0.199725	phases=1	R1=1.12861	X1=0.33793	R0=3.38583	X0=1.01378	C0=0.000636619772367581	C1=0.000212206590789194
New	Line.0x008F37A8_0x008E5278	Bus1=0x008F37A8.1	Bus2=0x008E5278.1	Length=0.170388	phases=1	R1=1.12861	X1=0.33793	R0=3.38583	X0=1.01378	C0=0.000636619772367581	C1=0.000212206590789194
New	Line.0x008CD6E8_0x008F0CA8	Bus1=0x008CD6E8.1	Bus2=0x008F0CA8.1	Length=0.0447192	phases=1	R1=1.12861	X1=0.33793	R0=3.38583	X0=1.01378	C0=0.000636619772367581	C1=0.000212206590789194
New	Line.0x008E5278_0x008E74D8	Bus1=0x008E5278.1	Bus2=0x008E74D8.1	Length=0.132224	phases=1	R1=1.12861	X1=0.33793	R0=3.38583	X0=1.01378	C0=0.000636619772367581	C1=0.000212206590789194
New	Line.0x008E74D8_0x008F2308	Bus1=0x008E74D8.1	Bus2=0x008F2308.1	Length=0.0200417	phases=1	R1=1.12861	X1=0.33793	R0=3.38583	X0=1.01378	C0=0.000636619772367581	C1=0.000212206590789194
New	Line.0x008DCBC8_0x008DD0F0	Bus1=0x008DCBC8.1	Bus2=0x008DD0F0.1	Length=0.0269372	phases=1	R1=1.12861	X1=0.33793	R0=3.38583	X0=1.01378	C0=0.000636619772367581	C1=0.000212206590789194
New	Line.0x008E0640_0x008E9E18	Bus1=0x008E0640.1	Bus2=0x008E9E18.1	Length=0.0795265	phases=1	R1=1.12861	X1=0.33793	R0=3.38583	X0=1.01378	C0=0.000636619772367581	C1=0.000212206590789194
New	Line.0x008E9E18_0x008DBC48	Bus1=0x008E9E18.1	Bus2=0x008DBC48.1	Length=0.0262016	phases=1	R1=1.12861	X1=0.33793	R0=3.38583	X0=1.01378	C0=0.000636619772367581	C1=0.000212206590789194
New	Line.0x008CE818_0x008DD7D0	Bus1=0x008CE818.1	Bus2=0x008DD7D0.1	Length=0.13613	phases=1	R1=1.12861	X1=0.33793	R0=3.38583	X0=1.01378	C0=0.000636619772367581	C1=0.000212206590789194
New	Line.0x008DD7D0_0x008D2618	Bus1=0x008DD7D0.1	Bus2=0x008D2618.1	Length=0.133986	phases=1	R1=1.12861	X1=0.33793	R0=3.38583	X0=1.01378	C0=0.000636619772367581	C1=0.000212206590789194
New	Line.0x008D2618_0x008CC5B8	Bus1=0x008D2618.1	Bus2=0x008CC5B8.1	Length=0.106304	phases=1	R1=1.12861	X1=0.33793	R0=3.38583	X0=1.01378	C0=0.000636619772367581	C1=0.000212206590789194
New	Line.0x008D9678_0x008CE818	Bus1=0x008D9678.1	Bus2=0x008CE818.1	Length=0.124964	phases=1	R1=1.12861	X1=0.33793	R0=3.38583	X0=1.01378	C0=0.000636619772367581	C1=0.000212206590789194
New	Line.0x008CF5D8_0x008DC4E8	Bus1=0x008CF5D8.1	Bus2=0x008DC4E8.1	Length=0.0828553	phases=1	R1=1.12861	X1=0.33793	R0=3.38583	X0=1.01378	C0=0.000636619772367581	C1=0.000212206590789194
New	Line.0x008D5ED8_0x0089CCB0	Bus1=0x008D5ED8.1	Bus2=0x0089CCB0.1	Length=0.017098	phases=1	R1=1.12861	X1=0.33793	R0=3.38583	X0=1.01378	C0=0.000636619772367581	C1=0.000212206590789194
New	Line.0x008DC4E8_0x008D2460	Bus1=0x008DC4E8.1	Bus2=0x008D2460.1	Length=0.0401161	phases=1	R1=1.12861	X1=0.33793	R0=3.38583	X0=1.01378	C0=0.000636619772367581	C1=0.000212206590789194
New	Line.0x008D2460_0x008D5ED8	Bus1=0x008D2460.1	Bus2=0x008D5ED8.1	Length=0.041271	phases=1	R1=1.12861	X1=0.33793	R0=3.38583	X0=1.01378	C0=0.000636619772367581	C1=0.000212206590789194
New	Line.0x008E44B8_0x008DB8D8	Bus1=0x008E44B8.1	Bus2=0x008DB8D8.1	Length=0.157019	phases=1	R1=1.12861	X1=0.33793	R0=3.38583	X0=1.01378	C0=0.000636619772367581	C1=0.000212206590789194
New	Line.0x008CE2F0_0x008CD6E8	Bus1=0x008CE2F0.1	Bus2=0x008CD6E8.1	Length=0.0616753	phases=1	R1=1.12861	X1=0.33793	R0=3.38583	X0=1.01378	C0=0.000636619772367581	C1=0.000212206590789194
New	Line.0x008D89D0_0x008D1858	Bus1=0x008D89D0.1	Bus2=0x008D1858.1	Length=0.0614284	phases=1	R1=1.12861	X1=0.33793	R0=3.38583	X0=1.01378	C0=0.000636619772367581	C1=0.000212206590789194
New	Line.0x008D22A8_0x008E44B8	Bus1=0x008D22A8.1	Bus2=0x008E44B8.1	Length=0.348184	phases=1	R1=1.12861	X1=0.33793	R0=3.38583	X0=1.01378	C0=0.000636619772367581	C1=0.000212206590789194
New	Line.0x008DD0F0_0x008C3A80	Bus1=0x008DD0F0.1	Bus2=0x008C3A80.1	Length=0.0118864	phases=1	R1=1.12861	X1=0.33793	R0=3.38583	X0=1.01378	C0=0.000636619772367581	C1=0.000212206590789194
New	Line.0x008D0708_0x008D5640	Bus1=0x008D0708.1	Bus2=0x008D5640.1	Length=0.149676	phases=1	R1=1.12861	X1=0.33793	R0=3.38583	X0=1.01378	C0=0.000636619772367581	C1=0.000212206590789194
New	Line.0x008CF420_0x008E1248	Bus1=0x008CF420.1	Bus2=0x008E1248.1	Length=0.169986	phases=1	R1=1.12861	X1=0.33793	R0=3.38583	X0=1.01378	C0=0.000636619772367581	C1=0.000212206590789194
New	Line.0x008DBFB8_0x008DB720	Bus1=0x008DBFB8.1	Bus2=0x008DB720.1	Length=0.152465	phases=1	R1=1.12861	X1=0.33793	R0=3.38583	X0=1.01378	C0=0.000636619772367581	C1=0.000212206590789194
New	Line.0x008996E0_0x008D9830	Bus1=0x008996E0.1	Bus2=0x008D9830.1	Length=0.0253621	phases=1	R1=1.12861	X1=0.33793	R0=3.38583	X0=1.01378	C0=0.000636619772367581	C1=0.000212206590789194
New	Line.0x008DEAC0_0x008DDCF8	Bus1=0x008DEAC0.1	Bus2=0x008DDCF8.1	Length=0.0180763	phases=1	R1=1.12861	X1=0.33793	R0=3.38583	X0=1.01378	C0=0.000636619772367581	C1=0.000212206590789194
New	Line.0x008D9830_0x008D9BA0	Bus1=0x008D9830.1	Bus2=0x008D9BA0.1	Length=0.0188147	phases=1	R1=1.12861	X1=0.33793	R0=3.38583	X0=1.01378	C0=0.000636619772367581	C1=0.000212206590789194
New	Line.0x008DB040_0x008C2120	Bus1=0x008DB040.1	Bus2=0x008C2120.1	Length=0.0475343	phases=1	R1=1.12861	X1=0.33793	R0=3.38583	X0=1.01378	C0=0.000636619772367581	C1=0.000212206590789194
New	Line.0x008DEC78_0x008E8298	Bus1=0x008DEC78.1	Bus2=0x008E8298.1	Length=0.00855	phases=1	R1=1.12861	X1=0.33793	R0=3.38583	X0=1.01378	C0=0.000636619772367581	C1=0.000212206590789194
New	Line.0x008DB568_0x008DB040	Bus1=0x008DB568.1	Bus2=0x008DB040.1	Length=0.047294	phases=1	R1=1.12861	X1=0.33793	R0=3.38583	X0=1.01378	C0=0.000636619772367581	C1=0.000212206590789194
New	Line.0x008D9BA0_0x008DB568	Bus1=0x008D9BA0.1	Bus2=0x008DB568.1	Length=0.0577868	phases=1	R1=1.12861	X1=0.33793	R0=3.38583	X0=1.01378	C0=0.000636619772367581	C1=0.000212206590789194
New	Line.0x008F11D8_0x008E1928	Bus1=0x008F11D8.1	Bus2=0x008E1928.1	Length=0.0373674	phases=1	R1=1.12861	X1=0.33793	R0=3.38583	X0=1.01378	C0=0.000636619772367581	C1=0.000212206590789194
New	Line.0x008E3358_0x008C8B48	Bus1=0x008E3358.1	Bus2=0x008C8B48.1	Length=0.25676	phases=1	R1=1.12861	X1=0.33793	R0=3.38583	X0=1.01378	C0=0.000636619772367581	C1=0.000212206590789194
New	Line.0x008E6560_0x008E6A88	Bus1=0x008E6560.1	Bus2=0x008E6A88.1	Length=0.025696	phases=1	R1=1.12861	X1=0.33793	R0=3.38583	X0=1.01378	C0=0.000636619772367581	C1=0.000212206590789194
New	Line.0x008E6A88_0x008E7168	Bus1=0x008E6A88.1	Bus2=0x008E7168.1	Length=0.030386	phases=1	R1=1.12861	X1=0.33793	R0=3.38583	X0=1.01378	C0=0.000636619772367581	C1=0.000212206590789194
New	Line.0x008DDB40_0x008E8CE8	Bus1=0x008DDB40.1	Bus2=0x008E8CE8.1	Length=0.008381	phases=1	R1=1.12861	X1=0.33793	R0=3.38583	X0=1.01378	C0=0.000636619772367581	C1=0.000212206590789194
New	Line.0x008E8CE8_0x008E6560	Bus1=0x008E8CE8.1	Bus2=0x008E6560.1	Length=0.027675	phases=1	R1=1.12861	X1=0.33793	R0=3.38583	X0=1.01378	C0=0.000636619772367581	C1=0.000212206590789194
New	Line.0x008E7168_0x008EA4F8	Bus1=0x008E7168.1	Bus2=0x008EA4F8.1	Length=0.0249818	phases=1	R1=1.12861	X1=0.33793	R0=3.38583	X0=1.01378	C0=0.000636619772367581	C1=0.000212206590789194
New	Line.0x008DE228_0x008C4BB0	Bus1=0x008DE228.1	Bus2=0x008C4BB0.1	Length=0.0236431	phases=1	R1=1.12861	X1=0.33793	R0=3.38583	X0=1.01378	C0=0.000636619772367581	C1=0.000212206590789194
New	Line.0x008C4BB0_0x008C5290	Bus1=0x008C4BB0.1	Bus2=0x008C5290.1	Length=0.0248094	phases=1	R1=1.12861	X1=0.33793	R0=3.38583	X0=1.01378	C0=0.000636619772367581	C1=0.000212206590789194
New	Line.0x008C5290_0x008F18B8	Bus1=0x008C5290.1	Bus2=0x008F18B8.1	Length=0.018039	phases=1	R1=1.12861	X1=0.33793	R0=3.38583	X0=1.01378	C0=0.000636619772367581	C1=0.000212206590789194
New	Line.0x008EFB78_0x008CF5D8	Bus1=0x008EFB78.1	Bus2=0x008CF5D8.1	Length=0.331713	phases=1	R1=1.12861	X1=0.33793	R0=3.38583	X0=1.01378	C0=0.000636619772367581	C1=0.000212206590789194
New	Line.0x008E7690_0x008DDEB0	Bus1=0x008E7690.1	Bus2=0x008DDEB0.1	Length=0.0815733	phases=1	R1=1.12861	X1=0.33793	R0=3.38583	X0=1.01378	C0=0.000636619772367581	C1=0.000212206590789194
New	Line.0x008DBC48_0x008DBFB8	Bus1=0x008DBC48.1	Bus2=0x008DBFB8.1	Length=0.0233355	phases=1	R1=1.12861	X1=0.33793	R0=3.38583	X0=1.01378	C0=0.000636619772367581	C1=0.000212206590789194
New	Line.0x008C9070_0x008DE908	Bus1=0x008C9070.1	Bus2=0x008DE908.1	Length=0.0126587	phases=1	R1=1.12861	X1=0.33793	R0=3.38583	X0=1.01378	C0=0.000636619772367581	C1=0.000212206590789194
New	Line.0x008CA6C8_0x008C9070	Bus1=0x008CA6C8.1	Bus2=0x008C9070.1	Length=0.0646374	phases=1	R1=1.12861	X1=0.33793	R0=3.38583	X0=1.01378	C0=0.000636619772367581	C1=0.000212206590789194
New	Line.0x008D8138_0x008D89D0	Bus1=0x008D8138.1	Bus2=0x008D89D0.1	Length=0.114515	phases=1	R1=1.12861	X1=0.33793	R0=3.38583	X0=1.01378	C0=0.000636619772367581	C1=0.000212206590789194
New	Line.0x008C8B48_0x008CE2F0	Bus1=0x008C8B48.1	Bus2=0x008CE2F0.1	Length=0.0502633	phases=1	R1=1.12861	X1=0.33793	R0=3.38583	X0=1.01378	C0=0.000636619772367581	C1=0.000212206590789194
New	Line.0x008E2598_0x008996E0	Bus1=0x008E2598.1	Bus2=0x008996E0.1	Length=0.326854	phases=1	R1=1.12861	X1=0.33793	R0=3.38583	X0=1.01378	C0=0.000636619772367581	C1=0.000212206590789194
New	Line.0x008DFF60_0x008E4D50	Bus1=0x008DFF60.1	Bus2=0x008E4D50.1	Length=0.0188319	phases=1	R1=1.12861	X1=0.33793	R0=3.38583	X0=1.01378	C0=0.000636619772367581	C1=0.000212206590789194
New	Line.0x008DB720_0x008DB1F8	Bus1=0x008DB720.1	Bus2=0x008DB1F8.1	Length=0.0343891	phases=1	R1=1.12861	X1=0.33793	R0=3.38583	X0=1.01378	C0=0.000636619772367581	C1=0.000212206590789194
New	Line.0x008DB1F8_0x008DE228	Bus1=0x008DB1F8.1	Bus2=0x008DE228.1	Length=0.0341393	phases=1	R1=1.12861	X1=0.33793	R0=3.38583	X0=1.01378	C0=0.000636619772367581	C1=0.000212206590789194
New	Line.0x008DC858_0x008D0708	Bus1=0x008DC858.1	Bus2=0x008D0708.1	Length=0.032906	phases=1	R1=1.12861	X1=0.33793	R0=3.38583	X0=1.01378	C0=0.000636619772367581	C1=0.000212206590789194
New	Line.0x008CADA8_0x008DC858	Bus1=0x008CADA8.1	Bus2=0x008DC858.1	Length=0.053847	phases=1	R1=1.12861	X1=0.33793	R0=3.38583	X0=1.01378	C0=0.000636619772367581	C1=0.000212206590789194
New	Line.0x008B87E8_0x008CADA8	Bus1=0x008B87E8.1	Bus2=0x008CADA8.1	Length=0.0178194	phases=1	R1=1.12861	X1=0.33793	R0=3.38583	X0=1.01378	C0=0.000636619772367581	C1=0.000212206590789194
New	Line.0x008E1928_0x008C6FC8	Bus1=0x008E1928.1	Bus2=0x008C6FC8.1	Length=0.0774519	phases=1	R1=1.12861	X1=0.33793	R0=3.38583	X0=1.01378	C0=0.000636619772367581	C1=0.000212206590789194
New	Line.0x008C6FC8_0x008E1AE0	Bus1=0x008C6FC8.1	Bus2=0x008E1AE0.1	Length=0.0881753	phases=1	R1=1.12861	X1=0.33793	R0=3.38583	X0=1.01378	C0=0.000636619772367581	C1=0.000212206590789194
New	Line.0x008E4D50_0x008C6050	Bus1=0x008E4D50.1	Bus2=0x008C6050.1	Length=0.0111848	phases=1	R1=1.12861	X1=0.33793	R0=3.38583	X0=1.01378	C0=0.000636619772367581	C1=0.000212206590789194
New	Line.0x008C68E8_0x008F3280	Bus1=0x008C68E8.1	Bus2=0x008F3280.1	Length=0.0534139	phases=1	R1=1.12861	X1=0.33793	R0=3.38583	X0=1.01378	C0=0.000636619772367581	C1=0.000212206590789194
New	Line.0x008E09B0_0x008E93C8	Bus1=0x008E09B0.1	Bus2=0x008E93C8.1	Length=0.0281872	phases=1	R1=1.12861	X1=0.33793	R0=3.38583	X0=1.01378	C0=0.000636619772367581	C1=0.000212206590789194
New	Line.0x008E93C8_0x008EA868	Bus1=0x008E93C8.1	Bus2=0x008EA868.1	Length=0.0694028	phases=1	R1=1.12861	X1=0.33793	R0=3.38583	X0=1.01378	C0=0.000636619772367581	C1=0.000212206590789194
New	Line.0x008E4F08_0x008E8B30	Bus1=0x008E4F08.1	Bus2=0x008E8B30.1	Length=0.068691	phases=1	R1=1.12861	X1=0.33793	R0=3.38583	X0=1.01378	C0=0.000636619772367581	C1=0.000212206590789194
New	Line.0x008EA868_0x008EABD8	Bus1=0x008EA868.1	Bus2=0x008EABD8.1	Length=0.0290562	phases=1	R1=1.12861	X1=0.33793	R0=3.38583	X0=1.01378	C0=0.000636619772367581	C1=0.000212206590789194
New	Line.0x008EB100_0x008D0C30	Bus1=0x008EB100.1	Bus2=0x008D0C30.1	Length=0.06912	phases=1	R1=1.12861	X1=0.33793	R0=3.38583	X0=1.01378	C0=0.000636619772367581	C1=0.000212206590789194
New	Line.0x008EABD8_0x008EB100	Bus1=0x008EABD8.1	Bus2=0x008EB100.1	Length=0.0290532	phases=1	R1=1.12861	X1=0.33793	R0=3.38583	X0=1.01378	C0=0.000636619772367581	C1=0.000212206590789194
New	Line.0x008D9F10_0x008DEC78	Bus1=0x008D9F10.1	Bus2=0x008DEC78.1	Length=0.008549	phases=1	R1=1.12861	X1=0.33793	R0=3.38583	X0=1.01378	C0=0.000636619772367581	C1=0.000212206590789194
New	Line.0x008E1AE0_0x008C8EB8	Bus1=0x008E1AE0.1	Bus2=0x008C8EB8.1	Length=0.00909202	phases=1	R1=1.12861	X1=0.33793	R0=3.38583	X0=1.01378	C0=0.000636619772367581	C1=0.000212206590789194
New	Line.0x008D1858_0x008D9F10	Bus1=0x008D1858.1	Bus2=0x008D9F10.1	Length=0.0385562	phases=1	R1=1.12861	X1=0.33793	R0=3.38583	X0=1.01378	C0=0.000636619772367581	C1=0.000212206590789194
New	Line.0x008C6050_0x008C68E8	Bus1=0x008C6050.1	Bus2=0x008C68E8.1	Length=0.0639454	phases=1	R1=1.12861	X1=0.33793	R0=3.38583	X0=1.01378	C0=0.000636619772367581	C1=0.000212206590789194
New	Line.0x008C8EB8_0x008DFF60	Bus1=0x008C8EB8.1	Bus2=0x008DFF60.1	Length=0.346773	phases=1	R1=1.12861	X1=0.33793	R0=3.38583	X0=1.01378	C0=0.000636619772367581	C1=0.000212206590789194
New	Line.0x008DE908_0x008D6770	Bus1=0x008DE908.1	Bus2=0x008D6770.1	Length=0.076461	phases=1	R1=1.12861	X1=0.33793	R0=3.38583	X0=1.01378	C0=0.000636619772367581	C1=0.000212206590789194
New	Line.0x008E8B30_0x008CA6C8	Bus1=0x008E8B30.1	Bus2=0x008CA6C8.1	Length=0.104116	phases=1	R1=1.12861	X1=0.33793	R0=3.38583	X0=1.01378	C0=0.000636619772367581	C1=0.000212206590789194
New	Line.0x008EA4F8_0x008C3030	Bus1=0x008EA4F8.1	Bus2=0x008C3030.1	Length=0.00949212	phases=1	R1=1.12861	X1=0.33793	R0=3.38583	X0=1.01378	C0=0.000636619772367581	C1=0.000212206590789194
New	Line.0x008E1770_0x008F1548	Bus1=0x008E1770.2	Bus2=0x008F1548.2	Length=0.0899758	phases=1	R1=1.12861	X1=0.33793	R0=3.38583	X0=1.01378	C0=0.000636619772367581	C1=0.000212206590789194
New	Line.0x008D76E8_0x008D1330	Bus1=0x008D76E8.2	Bus2=0x008D1330.2	Length=0.0833053	phases=1	R1=1.12861	X1=0.33793	R0=3.38583	X0=1.01378	C0=0.000636619772367581	C1=0.000212206590789194
New	Line.0x008D2B40_0x008D3AC0	Bus1=0x008D2B40.2	Bus2=0x008D3AC0.2	Length=0.094369	phases=1	R1=1.12861	X1=0.33793	R0=3.38583	X0=1.01378	C0=0.000636619772367581	C1=0.000212206590789194
New	Line.0x0089D700_0x0089E4C0	Bus1=0x0089D700.2	Bus2=0x0089E4C0.2	Length=0.0453055	phases=1	R1=1.12861	X1=0.33793	R0=3.38583	X0=1.01378	C0=0.000636619772367581	C1=0.000212206590789194
New	Line.0x008E0D20_0x008DFBF0	Bus1=0x008E0D20.2	Bus2=0x008DFBF0.2	Length=0.0681666	phases=1	R1=1.12861	X1=0.33793	R0=3.38583	X0=1.01378	C0=0.000636619772367581	C1=0.000212206590789194
New	Line.0x008DFBF0_0x008D0398	Bus1=0x008DFBF0.2	Bus2=0x008D0398.2	Length=0.0181325	phases=1	R1=1.12861	X1=0.33793	R0=3.38583	X0=1.01378	C0=0.000636619772367581	C1=0.000212206590789194
New	Line.0x008D0398_0x008C7338	Bus1=0x008D0398.2	Bus2=0x008C7338.2	Length=0.0712477	phases=1	R1=1.12861	X1=0.33793	R0=3.38583	X0=1.01378	C0=0.000636619772367581	C1=0.000212206590789194
New	Line.0x008C7338_0x008F3960	Bus1=0x008C7338.2	Bus2=0x008F3960.2	Length=0.0188246	phases=1	R1=1.12861	X1=0.33793	R0=3.38583	X0=1.01378	C0=0.000636619772367581	C1=0.000212206590789194
New	Line.0x008F3960_0x008CEB88	Bus1=0x008F3960.2	Bus2=0x008CEB88.2	Length=0.0424714	phases=1	R1=1.12861	X1=0.33793	R0=3.38583	X0=1.01378	C0=0.000636619772367581	C1=0.000212206590789194
New	Line.0x008D33E0_0x008D3598	Bus1=0x008D33E0.2	Bus2=0x008D3598.2	Length=0.146091	phases=1	R1=1.12861	X1=0.33793	R0=3.38583	X0=1.01378	C0=0.000636619772367581	C1=0.000212206590789194
New	Line.0x008D3598_0x008DD988	Bus1=0x008D3598.2	Bus2=0x008DD988.2	Length=0.0740843	phases=1	R1=1.12861	X1=0.33793	R0=3.38583	X0=1.01378	C0=0.000636619772367581	C1=0.000212206590789194
New	Line.0x008D9D58_0x008CC090	Bus1=0x008D9D58.2	Bus2=0x008CC090.2	Length=0.187833	phases=1	R1=1.12861	X1=0.33793	R0=3.38583	X0=1.01378	C0=0.000636619772367581	C1=0.000212206590789194
New	Line.0x008CD530_0x008CDC10	Bus1=0x008CD530.2	Bus2=0x008CDC10.2	Length=0.0305348	phases=1	R1=1.12861	X1=0.33793	R0=3.38583	X0=1.01378	C0=0.000636619772367581	C1=0.000212206590789194
New	Line.0x008E07F8_0x008D4510	Bus1=0x008E07F8.2	Bus2=0x008D4510.2	Length=0.0603165	phases=1	R1=1.12861	X1=0.33793	R0=3.38583	X0=1.01378	C0=0.000636619772367581	C1=0.000212206590789194
New	Line.0x008D4510_0x008D33E0	Bus1=0x008D4510.2	Bus2=0x008D33E0.2	Length=0.0641646	phases=1	R1=1.12861	X1=0.33793	R0=3.38583	X0=1.01378	C0=0.000636619772367581	C1=0.000212206590789194
New	Line.0x008E2C78_0x008B8D10	Bus1=0x008E2C78.2	Bus2=0x008B8D10.2	Length=0.269816	phases=1	R1=1.12861	X1=0.33793	R0=3.38583	X0=1.01378	C0=0.000636619772367581	C1=0.000212206590789194
New	Line.0x008D5118_0x008C5CE0	Bus1=0x008D5118.2	Bus2=0x008C5CE0.2	Length=0.0388935	phases=1	R1=1.12861	X1=0.33793	R0=3.38583	X0=1.01378	C0=0.000636619772367581	C1=0.000212206590789194
New	Line.0x008D1F38_0x008C4688	Bus1=0x008D1F38.2	Bus2=0x008C4688.2	Length=0.128446	phases=1	R1=1.12861	X1=0.33793	R0=3.38583	X0=1.01378	C0=0.000636619772367581	C1=0.000212206590789194
New	Line.0x008D1330_0x008DD618	Bus1=0x008D1330.2	Bus2=0x008DD618.2	Length=0.129202	phases=1	R1=1.12861	X1=0.33793	R0=3.38583	X0=1.01378	C0=0.000636619772367581	C1=0.000212206590789194
New	Line.0x008CE138_0x0089E150	Bus1=0x008CE138.2	Bus2=0x0089E150.2	Length=0.0386609	phases=1	R1=1.12861	X1=0.33793	R0=3.38583	X0=1.01378	C0=0.000636619772367581	C1=0.000212206590789194
New	Line.0x008CC090_0x008CD530	Bus1=0x008CC090.2	Bus2=0x008CD530.2	Length=0.090326	phases=1	R1=1.12861	X1=0.33793	R0=3.38583	X0=1.01378	C0=0.000636619772367581	C1=0.000212206590789194
New	Line.0x008CDC10_0x008C80F8	Bus1=0x008CDC10.2	Bus2=0x008C80F8.2	Length=0.0183204	phases=1	R1=1.12861	X1=0.33793	R0=3.38583	X0=1.01378	C0=0.000636619772367581	C1=0.000212206590789194
New	Line.0x008F2830_0x008DE3E0	Bus1=0x008F2830.2	Bus2=0x008DE3E0.2	Length=0.071385	phases=1	R1=1.12861	X1=0.33793	R0=3.38583	X0=1.01378	C0=0.000636619772367581	C1=0.000212206590789194
New	Line.0x008DA7A8_0x008CE138	Bus1=0x008DA7A8.2	Bus2=0x008CE138.2	Length=0.0531621	phases=1	R1=1.12861	X1=0.33793	R0=3.38583	X0=1.01378	C0=0.000636619772367581	C1=0.000212206590789194
New	Line.0x008EF498_0x008D01E0	Bus1=0x008EF498.2	Bus2=0x008D01E0.2	Length=0.535682	phases=1	R1=1.12861	X1=0.33793	R0=3.38583	X0=1.01378	C0=0.000636619772367581	C1=0.000212206590789194
New	Line.0x008D01E0_0x008DA7A8	Bus1=0x008D01E0.2	Bus2=0x008DA7A8.2	Length=0.0365103	phases=1	R1=1.12861	X1=0.33793	R0=3.38583	X0=1.01378	C0=0.000636619772367581	C1=0.000212206590789194
New	Line.0x008DD988_0x008DE598	Bus1=0x008DD988.2	Bus2=0x008DE598.2	Length=0.019285	phases=1	R1=1.12861	X1=0.33793	R0=3.38583	X0=1.01378	C0=0.000636619772367581	C1=0.000212206590789194
New	Line.0x008EA6B0_0x008C44D0	Bus1=0x008EA6B0.2	Bus2=0x008C44D0.2	Length=0.027432	phases=1	R1=1.12861	X1=0.33793	R0=3.38583	X0=1.01378	C0=0.000636619772367581	C1=0.000212206590789194
New	Line.0x008D3AC0_0x008F3B18	Bus1=0x008D3AC0.2	Bus2=0x008F3B18.2	Length=0.020193	phases=1	R1=1.12861	X1=0.33793	R0=3.38583	X0=1.01378	C0=0.000636619772367581	C1=0.000212206590789194
New	Line.0x008DE598_0x008CD8A0	Bus1=0x008DE598.2	Bus2=0x008CD8A0.2	Length=0.149102	phases=1	R1=1.12861	X1=0.33793	R0=3.38583	X0=1.01378	C0=0.000636619772367581	C1=0.000212206590789194
New	Line.0x008CD8A0_0x008EA6B0	Bus1=0x008CD8A0.2	Bus2=0x008EA6B0.2	Length=0.013626	phases=1	R1=1.12861	X1=0.33793	R0=3.38583	X0=1.01378	C0=0.000636619772367581	C1=0.000212206590789194
New	Line.0x008C5970_0x008CA358	Bus1=0x008C5970.2	Bus2=0x008CA358.2	Length=0.120704	phases=1	R1=1.12861	X1=0.33793	R0=3.38583	X0=1.01378	C0=0.000636619772367581	C1=0.000212206590789194
New	Line.0x008B8D10_0x008EB470	Bus1=0x008B8D10.2	Bus2=0x008EB470.2	Length=0.0246745	phases=1	R1=1.12861	X1=0.33793	R0=3.38583	X0=1.01378	C0=0.000636619772367581	C1=0.000212206590789194
New	Line.0x008EB470_0x008D5118	Bus1=0x008EB470.2	Bus2=0x008D5118.2	Length=0.0400315	phases=1	R1=1.12861	X1=0.33793	R0=3.38583	X0=1.01378	C0=0.000636619772367581	C1=0.000212206590789194
New	Line.0x008C2648_0x008C3558	Bus1=0x008C2648.2	Bus2=0x008C3558.2	Length=0.00874918	phases=1	R1=1.12861	X1=0.33793	R0=3.38583	X0=1.01378	C0=0.000636619772367581	C1=0.000212206590789194
New	Line.0x0089BF70_0x008C2648	Bus1=0x0089BF70.2	Bus2=0x008C2648.2	Length=0.025727	phases=1	R1=1.12861	X1=0.33793	R0=3.38583	X0=1.01378	C0=0.000636619772367581	C1=0.000212206590789194
New	Line.0x008C2490_0x0089BF70	Bus1=0x008C2490.2	Bus2=0x0089BF70.2	Length=0.0173101	phases=1	R1=1.12861	X1=0.33793	R0=3.38583	X0=1.01378	C0=0.000636619772367581	C1=0.000212206590789194
New	Line.0x008C2B70_0x008C2490	Bus1=0x008C2B70.2	Bus2=0x008C2490.2	Length=0.0320271	phases=1	R1=1.12861	X1=0.33793	R0=3.38583	X0=1.01378	C0=0.000636619772367581	C1=0.000212206590789194
New	Line.0x0089D020_0x008C2B70	Bus1=0x0089D020.2	Bus2=0x008C2B70.2	Length=0.0735574	phases=1	R1=1.12861	X1=0.33793	R0=3.38583	X0=1.01378	C0=0.000636619772367581	C1=0.000212206590789194
New	Line.0x008CBD20_0x0089D020	Bus1=0x008CBD20.2	Bus2=0x0089D020.2	Length=0.0911348	phases=1	R1=1.12861	X1=0.33793	R0=3.38583	X0=1.01378	C0=0.000636619772367581	C1=0.000212206590789194
New	Line.0x008F1548_0x008E38B0	Bus1=0x008F1548.2	Bus2=0x008E38B0.2	Length=0.0359485	phases=1	R1=1.12861	X1=0.33793	R0=3.38583	X0=1.01378	C0=0.000636619772367581	C1=0.000212206590789194
New	Line.0x008CE9D0_0x0089DDE0	Bus1=0x008CE9D0.2	Bus2=0x0089DDE0.2	Length=0.0629704	phases=1	R1=1.12861	X1=0.33793	R0=3.38583	X0=1.01378	C0=0.000636619772367581	C1=0.000212206590789194
New	Line.0x008E38B0_0x008E7320	Bus1=0x008E38B0.2	Bus2=0x008E7320.2	Length=0.0129078	phases=1	R1=1.12861	X1=0.33793	R0=3.38583	X0=1.01378	C0=0.000636619772367581	C1=0.000212206590789194
New	Line.0x008E7320_0x008E7848	Bus1=0x008E7320.2	Bus2=0x008E7848.2	Length=0.0119263	phases=1	R1=1.12861	X1=0.33793	R0=3.38583	X0=1.01378	C0=0.000636619772367581	C1=0.000212206590789194
New	Line.0x008D7DC8_0x008EDA38	Bus1=0x008D7DC8.2	Bus2=0x008EDA38.2	Length=0.0410877	phases=1	R1=1.12861	X1=0.33793	R0=3.38583	X0=1.01378	C0=0.000636619772367581	C1=0.000212206590789194
New	Line.0x008EDA38_0x0089FCD0	Bus1=0x008EDA38.2	Bus2=0x0089FCD0.2	Length=0.00908786	phases=1	R1=1.12861	X1=0.33793	R0=3.38583	X0=1.01378	C0=0.000636619772367581	C1=0.000212206590789194
New	Line.0x008E7848_0x008E4300	Bus1=0x008E7848.2	Bus2=0x008E4300.2	Length=0.0119329	phases=1	R1=1.12861	X1=0.33793	R0=3.38583	X0=1.01378	C0=0.000636619772367581	C1=0.000212206590789194
New	Line.0x008E4300_0x008E2750	Bus1=0x008E4300.2	Bus2=0x008E2750.2	Length=0.0163082	phases=1	R1=1.12861	X1=0.33793	R0=3.38583	X0=1.01378	C0=0.000636619772367581	C1=0.000212206590789194
New	Line.0x008E2750_0x008E2AC0	Bus1=0x008E2750.2	Bus2=0x008E2AC0.2	Length=0.0253631	phases=1	R1=1.12861	X1=0.33793	R0=3.38583	X0=1.01378	C0=0.000636619772367581	C1=0.000212206590789194
New	Line.0x008E2AC0_0x008D7DC8	Bus1=0x008E2AC0.2	Bus2=0x008D7DC8.2	Length=0.0492334	phases=1	R1=1.12861	X1=0.33793	R0=3.38583	X0=1.01378	C0=0.000636619772367581	C1=0.000212206590789194
New	Line.0x008C63C0_0x008F2830	Bus1=0x008C63C0.2	Bus2=0x008F2830.2	Length=0.107512	phases=1	R1=1.12861	X1=0.33793	R0=3.38583	X0=1.01378	C0=0.000636619772367581	C1=0.000212206590789194
New	Line.0x008DD618_0x008D1F38	Bus1=0x008DD618.2	Bus2=0x008D1F38.2	Length=0.072481	phases=1	R1=1.12861	X1=0.33793	R0=3.38583	X0=1.01378	C0=0.000636619772367581	C1=0.000212206590789194
New	Line.0x008CCE50_0x008D3E30	Bus1=0x008CCE50.2	Bus2=0x008D3E30.2	Length=0.036168	phases=1	R1=1.12861	X1=0.33793	R0=3.38583	X0=1.01378	C0=0.000636619772367581	C1=0.000212206590789194
New	Line.0x008D0A78_0x008D0DE8	Bus1=0x008D0A78.2	Bus2=0x008D0DE8.2	Length=0.107904	phases=1	R1=1.12861	X1=0.33793	R0=3.38583	X0=1.01378	C0=0.000636619772367581	C1=0.000212206590789194
New	Line.0x008D0DE8_0x008CCE50	Bus1=0x008D0DE8.2	Bus2=0x008CCE50.2	Length=0.202228	phases=1	R1=1.12861	X1=0.33793	R0=3.38583	X0=1.01378	C0=0.000636619772367581	C1=0.000212206590789194
New	Line.0x008D3E30_0x008D14E8	Bus1=0x008D3E30.2	Bus2=0x008D14E8.2	Length=0.0960566	phases=1	R1=1.12861	X1=0.33793	R0=3.38583	X0=1.01378	C0=0.000636619772367581	C1=0.000212206590789194
New	Line.0x008D14E8_0x008D0550	Bus1=0x008D14E8.2	Bus2=0x008D0550.2	Length=0.0207098	phases=1	R1=1.12861	X1=0.33793	R0=3.38583	X0=1.01378	C0=0.000636619772367581	C1=0.000212206590789194
New	Line.0x008EE368_0x008D8660	Bus1=0x008EE368.2	Bus2=0x008D8660.2	Length=0.0455607	phases=1	R1=1.12861	X1=0.33793	R0=3.38583	X0=1.01378	C0=0.000636619772367581	C1=0.000212206590789194
New	Line.0x008D8660_0x008D4358	Bus1=0x008D8660.2	Bus2=0x008D4358.2	Length=0.0709026	phases=1	R1=1.12861	X1=0.33793	R0=3.38583	X0=1.01378	C0=0.000636619772367581	C1=0.000212206590789194
New	Line.0x008D4358_0x008D1BC8	Bus1=0x008D4358.2	Bus2=0x008D1BC8.2	Length=0.0622668	phases=1	R1=1.12861	X1=0.33793	R0=3.38583	X0=1.01378	C0=0.000636619772367581	C1=0.000212206590789194
New	Line.0x008D1BC8_0x008D6AE0	Bus1=0x008D1BC8.2	Bus2=0x008D6AE0.2	Length=0.0377803	phases=1	R1=1.12861	X1=0.33793	R0=3.38583	X0=1.01378	C0=0.000636619772367581	C1=0.000212206590789194
New	Line.0x008D6AE0_0x0089F7A8	Bus1=0x008D6AE0.2	Bus2=0x0089F7A8.2	Length=0.0163439	phases=1	R1=1.12861	X1=0.33793	R0=3.38583	X0=1.01378	C0=0.000636619772367581	C1=0.000212206590789194
New	Line.0x0089DDE0_0x0089D700	Bus1=0x0089DDE0.2	Bus2=0x0089D700.2	Length=0.0359514	phases=1	R1=1.12861	X1=0.33793	R0=3.38583	X0=1.01378	C0=0.000636619772367581	C1=0.000212206590789194
New	Line.0x0089E4C0_0x008C5970	Bus1=0x0089E4C0.2	Bus2=0x008C5970.2	Length=0.0923253	phases=1	R1=1.12861	X1=0.33793	R0=3.38583	X0=1.01378	C0=0.000636619772367581	C1=0.000212206590789194
New	Line.0x008CA358_0x008EF808	Bus1=0x008CA358.2	Bus2=0x008EF808.2	Length=0.0211115	phases=1	R1=1.12861	X1=0.33793	R0=3.38583	X0=1.01378	C0=0.000636619772367581	C1=0.000212206590789194
New	Line.0x008E0B68_0x008EE520	Bus1=0x008E0B68.2	Bus2=0x008EE520.2	Length=0.258539	phases=1	R1=1.12861	X1=0.33793	R0=3.38583	X0=1.01378	C0=0.000636619772367581	C1=0.000212206590789194
New	Line.0x008EE520_0x008D99E8	Bus1=0x008EE520.2	Bus2=0x008D99E8.2	Length=0.121188	phases=1	R1=1.12861	X1=0.33793	R0=3.38583	X0=1.01378	C0=0.000636619772367581	C1=0.000212206590789194
New	Line.0x008F1A70_0x008E0B68	Bus1=0x008F1A70.2	Bus2=0x008E0B68.2	Length=0.034861	phases=1	R1=1.12861	X1=0.33793	R0=3.38583	X0=1.01378	C0=0.000636619772367581	C1=0.000212206590789194
New	Line.0x008DE3E0_0x008D76E8	Bus1=0x008DE3E0.2	Bus2=0x008D76E8.2	Length=0.0377663	phases=1	R1=1.12861	X1=0.33793	R0=3.38583	X0=1.01378	C0=0.000636619772367581	C1=0.000212206590789194
New	Line.0x008C7A18_0x008CE660	Bus1=0x008C7A18.2	Bus2=0x008CE660.2	Length=0.0742344	phases=1	R1=1.12861	X1=0.33793	R0=3.38583	X0=1.01378	C0=0.000636619772367581	C1=0.000212206590789194
New	Line.0x008C8468_0x008C7A18	Bus1=0x008C8468.2	Bus2=0x008C7A18.2	Length=0.0447983	phases=1	R1=1.12861	X1=0.33793	R0=3.38583	X0=1.01378	C0=0.000636619772367581	C1=0.000212206590789194
New	Line.0x008C8990_0x008C8468	Bus1=0x008C8990.2	Bus2=0x008C8468.2	Length=0.0449453	phases=1	R1=1.12861	X1=0.33793	R0=3.38583	X0=1.01378	C0=0.000636619772367581	C1=0.000212206590789194
New	Line.0x008CB488_0x008C8990	Bus1=0x008CB488.2	Bus2=0x008C8990.2	Length=0.0652388	phases=1	R1=1.12861	X1=0.33793	R0=3.38583	X0=1.01378	C0=0.000636619772367581	C1=0.000212206590789194
New	Line.0x008E4828_0x008CB488	Bus1=0x008E4828.2	Bus2=0x008CB488.2	Length=0.114147	phases=1	R1=1.12861	X1=0.33793	R0=3.38583	X0=1.01378	C0=0.000636619772367581	C1=0.000212206590789194
New	Line.0x008D99E8_0x008E07F8	Bus1=0x008D99E8.2	Bus2=0x008E07F8.2	Length=0.034192	phases=1	R1=1.12861	X1=0.33793	R0=3.38583	X0=1.01378	C0=0.000636619772367581	C1=0.000212206590789194
New	Line.0x008CE4A8_0x0089C260	Bus1=0x008CE4A8.3	Bus2=0x0089C260.3	Length=0.0361308	phases=1	R1=1.12861	X1=0.33793	R0=3.38583	X0=1.01378	C0=0.000636619772367581	C1=0.000212206590789194
New	Line.0x008E49E0_0x008DCF38	Bus1=0x008E49E0.3	Bus2=0x008DCF38.3	Length=0.00501062	phases=1	R1=1.12861	X1=0.33793	R0=3.38583	X0=1.01378	C0=0.000636619772367581	C1=0.000212206590789194
New	Line.0x0089C260_0x008E49E0	Bus1=0x0089C260.3	Bus2=0x008E49E0.3	Length=0.0178333	phases=1	R1=1.12861	X1=0.33793	R0=3.38583	X0=1.01378	C0=0.000636619772367581	C1=0.000212206590789194
New	Line.0x008E1090_0x008EB998	Bus1=0x008E1090.3	Bus2=0x008EB998.3	Length=0.154775	phases=1	R1=1.12861	X1=0.33793	R0=3.38583	X0=1.01378	C0=0.000636619772367581	C1=0.000212206590789194
New	Line.0x008EB998_0x008EB2B8	Bus1=0x008EB998.3	Bus2=0x008EB2B8.3	Length=0.017435	phases=1	R1=1.12861	X1=0.33793	R0=3.38583	X0=1.01378	C0=0.000636619772367581	C1=0.000212206590789194
New	Line.0x008EB2B8_0x008ED358	Bus1=0x008EB2B8.3	Bus2=0x008ED358.3	Length=0.0301466	phases=1	R1=1.12861	X1=0.33793	R0=3.38583	X0=1.01378	C0=0.000636619772367581	C1=0.000212206590789194
New	Line.0x008D6C98_0x008DCD80	Bus1=0x008D6C98.3	Bus2=0x008DCD80.3	Length=0.127809	phases=1	R1=1.12861	X1=0.33793	R0=3.38583	X0=1.01378	C0=0.000636619772367581	C1=0.000212206590789194
New	Line.0x008ED358_0x008E2FE8	Bus1=0x008ED358.3	Bus2=0x008E2FE8.3	Length=0.042252	phases=1	R1=1.12861	X1=0.33793	R0=3.38583	X0=1.01378	C0=0.000636619772367581	C1=0.000212206590789194
New	Line.0x008E2FE8_0x008E3510	Bus1=0x008E2FE8.3	Bus2=0x008E3510.3	Length=0.0380024	phases=1	R1=1.12861	X1=0.33793	R0=3.38583	X0=1.01378	C0=0.000636619772367581	C1=0.000212206590789194
New	Line.0x008E3510_0x008E68D0	Bus1=0x008E3510.3	Bus2=0x008E68D0.3	Length=0.0315057	phases=1	R1=1.12861	X1=0.33793	R0=3.38583	X0=1.01378	C0=0.000636619772367581	C1=0.000212206590789194
New	Line.0x008E68D0_0x0089D390	Bus1=0x008E68D0.3	Bus2=0x0089D390.3	Length=0.0123307	phases=1	R1=1.12861	X1=0.33793	R0=3.38583	X0=1.01378	C0=0.000636619772367581	C1=0.000212206590789194
New	Line.0x008DEE30_0x008E8450	Bus1=0x008DEE30.3	Bus2=0x008E8450.3	Length=0.02064	phases=1	R1=1.12861	X1=0.33793	R0=3.38583	X0=1.01378	C0=0.000636619772367581	C1=0.000212206590789194
New	Line.0x008E1400_0x008DF1A0	Bus1=0x008E1400.3	Bus2=0x008DF1A0.3	Length=0.032246	phases=1	R1=1.12861	X1=0.33793	R0=3.38583	X0=1.01378	C0=0.000636619772367581	C1=0.000212206590789194
New	Line.0x008E8450_0x008C4D68	Bus1=0x008E8450.3	Bus2=0x008C4D68.3	Length=0.024992	phases=1	R1=1.12861	X1=0.33793	R0=3.38583	X0=1.01378	C0=0.000636619772367581	C1=0.000212206590789194
New	Line.0x008E8978_0x0089D8B8	Bus1=0x008E8978.3	Bus2=0x0089D8B8.3	Length=0.0301281	phases=1	R1=1.12861	X1=0.33793	R0=3.38583	X0=1.01378	C0=0.000636619772367581	C1=0.000212206590789194
New	Line.0x008C4D68_0x008DF6C8	Bus1=0x008C4D68.3	Bus2=0x008DF6C8.3	Length=0.049023	phases=1	R1=1.12861	X1=0.33793	R0=3.38583	X0=1.01378	C0=0.000636619772367581	C1=0.000212206590789194
New	Line.0x008DF6C8_0x008F3438	Bus1=0x008DF6C8.3	Bus2=0x008F3438.3	Length=0.0085002	phases=1	R1=1.12861	X1=0.33793	R0=3.38583	X0=1.01378	C0=0.000636619772367581	C1=0.000212206590789194
New	Line.0x008D08C0_0x008DA438	Bus1=0x008D08C0.3	Bus2=0x008DA438.3	Length=0.0534844	phases=1	R1=1.12861	X1=0.33793	R0=3.38583	X0=1.01378	C0=0.000636619772367581	C1=0.000212206590789194
New	Line.0x008DA438_0x008DA960	Bus1=0x008DA438.3	Bus2=0x008DA960.3	Length=0.0124263	phases=1	R1=1.12861	X1=0.33793	R0=3.38583	X0=1.01378	C0=0.000636619772367581	C1=0.000212206590789194
New	Line.0x008DA960_0x008DACD0	Bus1=0x008DA960.3	Bus2=0x008DACD0.3	Length=0.0430907	phases=1	R1=1.12861	X1=0.33793	R0=3.38583	X0=1.01378	C0=0.000636619772367581	C1=0.000212206590789194
New	Line.0x008DACD0_0x008E0488	Bus1=0x008DACD0.3	Bus2=0x008E0488.3	Length=0.0452389	phases=1	R1=1.12861	X1=0.33793	R0=3.38583	X0=1.01378	C0=0.000636619772367581	C1=0.000212206590789194
New	Line.0x008D1A10_0x008D4880	Bus1=0x008D1A10.3	Bus2=0x008D4880.3	Length=0.197763	phases=1	R1=1.12861	X1=0.33793	R0=3.38583	X0=1.01378	C0=0.000636619772367581	C1=0.000212206590789194
New	Line.0x008D4F60_0x008D5D20	Bus1=0x008D4F60.3	Bus2=0x008D5D20.3	Length=0.183077	phases=1	R1=1.12861	X1=0.33793	R0=3.38583	X0=1.01378	C0=0.000636619772367581	C1=0.000212206590789194
New	Line.0x008EB7E0_0x008DC330	Bus1=0x008EB7E0.3	Bus2=0x008DC330.3	Length=0.202261	phases=1	R1=1.12861	X1=0.33793	R0=3.38583	X0=1.01378	C0=0.000636619772367581	C1=0.000212206590789194
New	Line.0x008D82F0_0x00899528	Bus1=0x008D82F0.3	Bus2=0x00899528.3	Length=0.207479	phases=1	R1=1.12861	X1=0.33793	R0=3.38583	X0=1.01378	C0=0.000636619772367581	C1=0.000212206590789194
New	Line.0x00899528_0x008D6C98	Bus1=0x00899528.3	Bus2=0x008D6C98.3	Length=0.134606	phases=1	R1=1.12861	X1=0.33793	R0=3.38583	X0=1.01378	C0=0.000636619772367581	C1=0.000212206590789194
New	Line.0x008DC330_0x008D4BF0	Bus1=0x008DC330.3	Bus2=0x008D4BF0.3	Length=0.020483	phases=1	R1=1.12861	X1=0.33793	R0=3.38583	X0=1.01378	C0=0.000636619772367581	C1=0.000212206590789194
New	Line.0x008C50D8_0x008C49F8	Bus1=0x008C50D8.3	Bus2=0x008C49F8.3	Length=0.0934253	phases=1	R1=1.12861	X1=0.33793	R0=3.38583	X0=1.01378	C0=0.000636619772367581	C1=0.000212206590789194
New	Line.0x008D4BF0_0x008D5488	Bus1=0x008D4BF0.3	Bus2=0x008D5488.3	Length=0.135574	phases=1	R1=1.12861	X1=0.33793	R0=3.38583	X0=1.01378	C0=0.000636619772367581	C1=0.000212206590789194
New	Line.0x008D5488_0x008D6400	Bus1=0x008D5488.3	Bus2=0x008D6400.3	Length=0.133319	phases=1	R1=1.12861	X1=0.33793	R0=3.38583	X0=1.01378	C0=0.000636619772367581	C1=0.000212206590789194
New	Line.0x008D6400_0x008DE750	Bus1=0x008D6400.3	Bus2=0x008DE750.3	Length=0.079619	phases=1	R1=1.12861	X1=0.33793	R0=3.38583	X0=1.01378	C0=0.000636619772367581	C1=0.000212206590789194
New	Line.0x008DF1A0_0x008DEE30	Bus1=0x008DF1A0.3	Bus2=0x008DEE30.3	Length=0.031131	phases=1	R1=1.12861	X1=0.33793	R0=3.38583	X0=1.01378	C0=0.000636619772367581	C1=0.000212206590789194
New	Line.0x008EE890_0x008D08C0	Bus1=0x008EE890.3	Bus2=0x008D08C0.3	Length=0.275593	phases=1	R1=1.12861	X1=0.33793	R0=3.38583	X0=1.01378	C0=0.000636619772367581	C1=0.000212206590789194
New	Line.0x008EA188_0x008CCAE0	Bus1=0x008EA188.3	Bus2=0x008CCAE0.3	Length=0.0232511	phases=1	R1=1.12861	X1=0.33793	R0=3.38583	X0=1.01378	C0=0.000636619772367581	C1=0.000212206590789194
New	Line.0x0089ED58_0x008EA188	Bus1=0x0089ED58.3	Bus2=0x008EA188.3	Length=0.12574	phases=1	R1=1.12861	X1=0.33793	R0=3.38583	X0=1.01378	C0=0.000636619772367581	C1=0.000212206590789194
New	Line.0x008DCF38_0x008CB118	Bus1=0x008DCF38.3	Bus2=0x008CB118.3	Length=0.034809	phases=1	R1=1.12861	X1=0.33793	R0=3.38583	X0=1.01378	C0=0.000636619772367581	C1=0.000212206590789194
New	Line.0x008EEF70_0x008CFE70	Bus1=0x008EEF70.3	Bus2=0x008CFE70.3	Length=0.440365	phases=1	R1=1.12861	X1=0.33793	R0=3.38583	X0=1.01378	C0=0.000636619772367581	C1=0.000212206590789194
New	Line.0x008F1390_0x008EB7E0	Bus1=0x008F1390.3	Bus2=0x008EB7E0.3	Length=0.0755058	phases=1	R1=1.12861	X1=0.33793	R0=3.38583	X0=1.01378	C0=0.000636619772367581	C1=0.000212206590789194
New	Line.0x008CB9B0_0x008CC770	Bus1=0x008CB9B0.3	Bus2=0x008CC770.3	Length=0.0448731	phases=1	R1=1.12861	X1=0.33793	R0=3.38583	X0=1.01378	C0=0.000636619772367581	C1=0.000212206590789194
New	Line.0x008E3C20_0x008E7F28	Bus1=0x008E3C20.3	Bus2=0x008E7F28.3	Length=0.0908039	phases=1	R1=1.12861	X1=0.33793	R0=3.38583	X0=1.01378	C0=0.000636619772367581	C1=0.000212206590789194
New	Line.0x008CB118_0x0089C940	Bus1=0x008CB118.3	Bus2=0x0089C940.3	Length=0.0145458	phases=1	R1=1.12861	X1=0.33793	R0=3.38583	X0=1.01378	C0=0.000636619772367581	C1=0.000212206590789194
New	Line.0x008EDBF0_0x008D3228	Bus1=0x008EDBF0.3	Bus2=0x008D3228.3	Length=0.373574	phases=1	R1=1.12861	X1=0.33793	R0=3.38583	X0=1.01378	C0=0.000636619772367581	C1=0.000212206590789194
New	Line.0x008EAA20_0x008D41A0	Bus1=0x008EAA20.3	Bus2=0x008D41A0.3	Length=0.0512021	phases=1	R1=1.12861	X1=0.33793	R0=3.38583	X0=1.01378	C0=0.000636619772367581	C1=0.000212206590789194
New	Line.0x008D41A0_0x008EA340	Bus1=0x008D41A0.3	Bus2=0x008EA340.3	Length=0.0353117	phases=1	R1=1.12861	X1=0.33793	R0=3.38583	X0=1.01378	C0=0.000636619772367581	C1=0.000212206590789194
New	Line.0x0089EBA0_0x008C9750	Bus1=0x0089EBA0.3	Bus2=0x008C9750.3	Length=0.0669329	phases=1	R1=1.12861	X1=0.33793	R0=3.38583	X0=1.01378	C0=0.000636619772367581	C1=0.000212206590789194
New	Line.0x0089C940_0x0089F280	Bus1=0x0089C940.3	Bus2=0x0089F280.3	Length=0.0425894	phases=1	R1=1.12861	X1=0.33793	R0=3.38583	X0=1.01378	C0=0.000636619772367581	C1=0.000212206590789194
New	Line.0x0089F280_0x0089EBA0	Bus1=0x0089F280.3	Bus2=0x0089EBA0.3	Length=0.0466823	phases=1	R1=1.12861	X1=0.33793	R0=3.38583	X0=1.01378	C0=0.000636619772367581	C1=0.000212206590789194
...
!New	Line.0x008B8478_0x008EEDB8	Bus1=0x008B8478	Bus2=0x008EEDB8	Length=0.0189944	phases=3	R1=0.11483	X1=0.11483	R0=0.34449	X0=0.34449	C0=0.00135281701628111	C1=0.000450939005427037
New	Line.0x008B8630_0x008E9738	Bus1=0x008B8630	Bus2=0x008E9738	Length=0.006858	phases=3	R1=0.11483	X1=0.11483	R0=0.34449	X0=0.34449	C0=0.00135281701628111	C1=0.000450939005427037
New	Line.0x008B8630_0x008ED6C8	Bus1=0x008B8630	Bus2=0x008ED6C8	Length=0.0196971	phases=3	R1=0.11483	X1=0.11483	R0=0.34449	X0=0.34449	C0=0.00135281701628111	C1=0.000450939005427037
New	Line.0x008B89A0_0x008D3FE8	Bus1=0x008B89A0	Bus2=0x008D3FE8	Length=0.243592	phases=3	R1=0.2231	X1=0.21982	R0=0.66929	X0=0.65945	C0=0.00135281701628111	C1=0.000450939005427037
New	Line.0x008B8B58_0x008D52D0	Bus1=0x008B8B58	Bus2=0x008D52D0	Length=0.006889	phases=3	R1=0.11483	X1=0.11483	R0=0.34449	X0=0.34449	C0=0.00135281701628111	C1=0.000450939005427037
New	Line.0x008B8B58_0x008E1C98	Bus1=0x008B8B58	Bus2=0x008E1C98	Length=0.024108	phases=3	R1=0.11483	X1=0.11483	R0=0.34449	X0=0.34449	C0=0.00135281701628111	C1=0.000450939005427037
New	Line.0x008B8B58_0x008E63A8	Bus1=0x008B8B58	Bus2=0x008E63A8	Length=0.000245	phases=3	R1=0.11483	X1=0.11483	R0=0.34449	X0=0.34449	C0=0.00135281701628111	C1=0.000450939005427037
New	Line.0x008C2800_0x008C87D8	Bus1=0x008C2800	Bus2=0x008C87D8	Length=0.0395087	phases=3	R1=0.2231	X1=0.21982	R0=0.66929	X0=0.65945	C0=0.00135281701628111	C1=0.000450939005427037
New	Line.0x008C31E8_0x008CF420	Bus1=0x008C31E8	Bus2=0x008CF420	Length=0.01818	phases=3	R1=0.11483	X1=0.11483	R0=0.34449	X0=0.34449	C0=0.00135281701628111	C1=0.000450939005427037
New	Line.0x008C3710_0x008CBD20	Bus1=0x008C3710	Bus2=0x008CBD20	Length=0.01818	phases=3	R1=0.11483	X1=0.11483	R0=0.34449	X0=0.34449	C0=0.00135281701628111	C1=0.000450939005427037
New	Line.0x008C3C38_0x008CD1C0	Bus1=0x008C3C38	Bus2=0x008CD1C0	Length=0.01818	phases=3	R1=0.11483	X1=0.11483	R0=0.34449	X0=0.34449	C0=0.00135281701628111	C1=0.000450939005427037
New	Line.0x008C3FA8_0x008DA280	Bus1=0x008C3FA8	Bus2=0x008DA280	Length=0.019049	phases=3	R1=0.11483	X1=0.11483	R0=0.34449	X0=0.34449	C0=0.00135281701628111	C1=0.000450939005427037
New	Line.0x008C4160_0x008F1A70	Bus1=0x008C4160	Bus2=0x008F1A70	Length=0.019049	phases=3	R1=0.11483	X1=0.11483	R0=0.34449	X0=0.34449	C0=0.00135281701628111	C1=0.000450939005427037
New	Line.0x008C57B8_0x008D0A78	Bus1=0x008C57B8	Bus2=0x008D0A78	Length=0.019202	phases=3	R1=0.11483	X1=0.11483	R0=0.34449	X0=0.34449	C0=0.00135281701628111	C1=0.000450939005427037
New	Line.0x008C6578_0x008C4318	Bus1=0x008C6578	Bus2=0x008C4318	Length=0.0289545	phases=3	R1=0.23852	X1=0.3729	R0=0.71555	X0=1.11871	C0=5.30516476972985E-05	C1=2.65258238486492E-05
New	Line.0x008C6C58_0x008E0640	Bus1=0x008C6C58	Bus2=0x008E0640	Length=0.018281	phases=3	R1=0.11483	X1=0.11483	R0=0.34449	X0=0.34449	C0=0.00135281701628111	C1=0.000450939005427037
New	Line.0x008C6E10_0x008F1390	Bus1=0x008C6E10	Bus2=0x008F1390	Length=0.019049	phases=3	R1=0.11483	X1=0.11483	R0=0.34449	X0=0.34449	C0=0.00135281701628111	C1=0.000450939005427037
New	Line.0x008C7180_0x008F2F10	Bus1=0x008C7180	Bus2=0x008F2F10	Length=0.027433	phases=3	R1=0.11483	X1=0.11483	R0=0.34449	X0=0.34449	C0=0.00135281701628111	C1=0.000450939005427037
New	Line.0x008C7180_0x008F30C8	Bus1=0x008C7180	Bus2=0x008F30C8	Length=0.027433	phases=3	R1=0.11483	X1=0.11483	R0=0.34449	X0=0.34449	C0=0.00135281701628111	C1=0.000450939005427037
New	Line.0x008C76A8_0x008DF510	Bus1=0x008C76A8	Bus2=0x008DF510	Length=0.0389029	phases=3	R1=0.96096	X1=0.43946	R0=2.88287	X0=1.31837	C0=2.65258238486492E-05	C1=0
New	Line.0x008C82B0_0x008CDA58	Bus1=0x008C82B0	Bus2=0x008CDA58	Length=0.0169931	phases=3	R1=0.23852	X1=0.3729	R0=0.71555	X0=1.11871	C0=5.30516476972985E-05	C1=2.65258238486492E-05
New	Line.0x008C82B0_0x008D84A8	Bus1=0x008C82B0	Bus2=0x008D84A8	Length=0.006858	phases=3	R1=0.23852	X1=0.3729	R0=0.71555	X0=1.11871	C0=5.30516476972985E-05	C1=2.65258238486492E-05
New	Line.0x008C8620_0x008D1178	Bus1=0x008C8620	Bus2=0x008D1178	Length=0.019202	phases=3	R1=0.11483	X1=0.11483	R0=0.34449	X0=0.34449	C0=0.00135281701628111	C1=0.000450939005427037
New	Line.0x008C87D8_0x008DD2A8	Bus1=0x008C87D8	Bus2=0x008DD2A8	Length=0.00482014	phases=3	R1=0.2231	X1=0.21982	R0=0.66929	X0=0.65945	C0=0.00135281701628111	C1=0.000450939005427037
New	Line.0x008C87D8_0x008F1DE0	Bus1=0x008C87D8	Bus2=0x008F1DE0	Length=0.024384	phases=3	R1=0.11483	X1=0.11483	R0=0.34449	X0=0.34449	C0=0.00135281701628111	C1=0.000450939005427037
New	Line.0x008C8D00_0x008D27D0	Bus1=0x008C8D00	Bus2=0x008D27D0	Length=0.006857	phases=3	R1=0.11483	X1=0.11483	R0=0.34449	X0=0.34449	C0=0.00135281701628111	C1=0.000450939005427037
New	Line.0x008C8D00_0x008E4148	Bus1=0x008C8D00	Bus2=0x008E4148	Length=0.023896	phases=3	R1=0.11483	X1=0.11483	R0=0.34449	X0=0.34449	C0=0.00135281701628111	C1=0.000450939005427037
New	Line.0x008C9228_0x008DD460	Bus1=0x008C9228	Bus2=0x008DD460	Length=0.16475	phases=3	R1=0.2231	X1=0.21982	R0=0.66929	X0=0.65945	C0=0.00135281701628111	C1=0.000450939005427037
New	Line.0x008C9598_0x008C8D00	Bus1=0x008C9598	Bus2=0x008C8D00	Length=0.023896	phases=3	R1=0.11483	X1=0.11483	R0=0.34449	X0=0.34449	C0=0.00135281701628111	C1=0.000450939005427037
New	Line.0x008C9598_0x008CCC98	Bus1=0x008C9598	Bus2=0x008CCC98	Length=0.006857	phases=3	R1=0.11483	X1=0.11483	R0=0.34449	X0=0.34449	C0=0.00135281701628111	C1=0.000450939005427037
New	Line.0x008C9908_0x008EE368	Bus1=0x008C9908	Bus2=0x008EE368	Length=0.031241	phases=3	R1=0.11483	X1=0.11483	R0=0.34449	X0=0.34449	C0=0.00135281701628111	C1=0.000450939005427037
New	Line.0x008CA1A0_0x008D7A58	Bus1=0x008CA1A0	Bus2=0x008D7A58	Length=0.0139571	phases=3	R1=0.0853	X1=0.11155	R0=0.25591	X0=0.33465	C0=0.00135281701628111	C1=0.000450939005427037
New	Line.0x008CA510_0x008CDF80	Bus1=0x008CA510	Bus2=0x008CDF80	Length=0.021338	phases=3	R1=0.11483	X1=0.11483	R0=0.34449	X0=0.34449	C0=0.00135281701628111	C1=0.000450939005427037
New	Line.0x008CAA38_0x008D3070	Bus1=0x008CAA38	Bus2=0x008D3070	Length=0.143914	phases=3	R1=1.12861	X1=0.33793	R0=3.38583	X0=1.01378	C0=0.000636619772367581	C1=0.000212206590789194
New	Line.0x008CB2D0_0x008D6248	Bus1=0x008CB2D0	Bus2=0x008D6248	Length=0.0531649	phases=3	R1=1.12861	X1=0.33793	R0=3.38583	X0=1.01378	C0=0.000636619772367581	C1=0.000212206590789194
New	Line.0x008CBB68_0x008EE890	Bus1=0x008CBB68	Bus2=0x008EE890	Length=0.019049	phases=3	R1=0.11483	X1=0.11483	R0=0.34449	X0=0.34449	C0=0.00135281701628111	C1=0.000450939005427037
New	Line.0x008CCC98_0x008C7F40	Bus1=0x008CCC98	Bus2=0x008C7F40	Length=0.027433	phases=3	R1=0.11483	X1=0.11483	R0=0.34449	X0=0.34449	C0=0.00135281701628111	C1=0.000450939005427037
New	Line.0x008CCC98_0x008D6E50	Bus1=0x008CCC98	Bus2=0x008D6E50	Length=0.027432	phases=3	R1=0.11483	X1=0.11483	R0=0.34449	X0=0.34449	C0=0.00135281701628111	C1=0.000450939005427037
New	Line.0x008CD378_0x008CE9D0	Bus1=0x008CD378	Bus2=0x008CE9D0	Length=0.01818	phases=3	R1=0.11483	X1=0.11483	R0=0.34449	X0=0.34449	C0=0.00135281701628111	C1=0.000450939005427037
New	Line.0x008CDA58_0x008D59B0	Bus1=0x008CDA58	Bus2=0x008D59B0	Length=0.014583	phases=3	R1=0.23852	X1=0.3729	R0=0.71555	X0=1.11871	C0=5.30516476972985E-05	C1=2.65258238486492E-05
New	Line.0x008CDA58_0x008E57A0	Bus1=0x008CDA58	Bus2=0x008E57A0	Length=0.0150603	phases=3	R1=0.23852	X1=0.3729	R0=0.71555	X0=1.11871	C0=5.30516476972985E-05	C1=2.65258238486492E-05
New	Line.0x008CDDC8_0x008D22A8	Bus1=0x008CDDC8	Bus2=0x008D22A8	Length=0.019202	phases=3	R1=0.11483	X1=0.11483	R0=0.34449	X0=0.34449	C0=0.00135281701628111	C1=0.000450939005427037
New	Line.0x008CDF80_0x008D2EB0	Bus1=0x008CDF80	Bus2=0x008D2EB0	Length=0.006858	phases=3	R1=0.11483	X1=0.11483	R0=0.34449	X0=0.34449	C0=0.00135281701628111	C1=0.000450939005427037
New	Line.0x008CDF80_0x008D6928	Bus1=0x008CDF80	Bus2=0x008D6928	Length=0.023896	phases=3	R1=0.11483	X1=0.11483	R0=0.34449	X0=0.34449	C0=0.00135281701628111	C1=0.000450939005427037
New	Line.0x008CF948_0x008CFB00	Bus1=0x008CF948	Bus2=0x008CFB00	Length=0.027433	phases=3	R1=0.11483	X1=0.11483	R0=0.34449	X0=0.34449	C0=0.00135281701628111	C1=0.000450939005427037
New	Line.0x008CF948_0x008D46C8	Bus1=0x008CF948	Bus2=0x008D46C8	Length=0.027433	phases=3	R1=0.11483	X1=0.11483	R0=0.34449	X0=0.34449	C0=0.00135281701628111	C1=0.000450939005427037
New	Line.0x008CFCB8_0x008E09B0	Bus1=0x008CFCB8	Bus2=0x008E09B0	Length=0.018281	phases=3	R1=0.11483	X1=0.11483	R0=0.34449	X0=0.34449	C0=0.00135281701628111	C1=0.000450939005427037
New	Line.0x008D0028_0x008C9228	Bus1=0x008D0028	Bus2=0x008C9228	Length=0.024384	phases=3	R1=0.11483	X1=0.11483	R0=0.34449	X0=0.34449	C0=0.00135281701628111	C1=0.000450939005427037
New	Line.0x008D0028_0x008D1D80	Bus1=0x008D0028	Bus2=0x008D1D80	Length=0.006857	phases=3	R1=0.11483	X1=0.11483	R0=0.34449	X0=0.34449	C0=0.00135281701628111	C1=0.000450939005427037
New	Line.0x008D0FA0_0x008C82B0	Bus1=0x008D0FA0	Bus2=0x008C82B0	Length=0.0866307	phases=3	R1=0.23852	X1=0.3729	R0=0.71555	X0=1.11871	C0=5.30516476972985E-05	C1=2.65258238486492E-05
New	Line.0x008D0FA0_0x008D7530	Bus1=0x008D0FA0	Bus2=0x008D7530	Length=0.00467318	phases=3	R1=1.12861	X1=0.33793	R0=3.38583	X0=1.01378	C0=0.000636619772367581	C1=0.000212206590789194
New	Line.0x008D16A0_0x008C33A0	Bus1=0x008D16A0	Bus2=0x008C33A0	Length=0.092322	phases=3	R1=0.11483	X1=0.11483	R0=0.34449	X0=0.34449	C0=0.00135281701628111	C1=0.000450939005427037
New	Line.0x008D1D80_0x008C5B28	Bus1=0x008D1D80	Bus2=0x008C5B28	Length=0.027433	phases=3	R1=0.11483	X1=0.11483	R0=0.34449	X0=0.34449	C0=0.00135281701628111	C1=0.000450939005427037
New	Line.0x008D1D80_0x008CB7F8	Bus1=0x008D1D80	Bus2=0x008CB7F8	Length=0.027432	phases=3	R1=0.11483	X1=0.11483	R0=0.34449	X0=0.34449	C0=0.00135281701628111	C1=0.000450939005427037
New	Line.0x008D27D0_0x008C6208	Bus1=0x008D27D0	Bus2=0x008C6208	Length=0.027433	phases=3	R1=0.11483	X1=0.11483	R0=0.34449	X0=0.34449	C0=0.00135281701628111	C1=0.000450939005427037
New	Line.0x008D27D0_0x008C9E30	Bus1=0x008D27D0	Bus2=0x008C9E30	Length=0.027433	phases=3	R1=0.11483	X1=0.11483	R0=0.34449	X0=0.34449	C0=0.00135281701628111	C1=0.000450939005427037
New	Line.0x008D2CF8_0x008D0028	Bus1=0x008D2CF8	Bus2=0x008D0028	Length=0.023896	phases=3	R1=0.11483	X1=0.11483	R0=0.34449	X0=0.34449	C0=0.00135281701628111	C1=0.000450939005427037
New	Line.0x008D2CF8_0x008DAB18	Bus1=0x008D2CF8	Bus2=0x008DAB18	Length=0.006857	phases=3	R1=0.11483	X1=0.11483	R0=0.34449	X0=0.34449	C0=0.00135281701628111	C1=0.000450939005427037
New	Line.0x008D2EB0_0x008CC400	Bus1=0x008D2EB0	Bus2=0x008CC400	Length=0.027433	phases=3	R1=0.11483	X1=0.11483	R0=0.34449	X0=0.34449	C0=0.00135281701628111	C1=0.000450939005427037
New	Line.0x008D2EB0_0x008CC928	Bus1=0x008D2EB0	Bus2=0x008CC928	Length=0.027433	phases=3	R1=0.11483	X1=0.11483	R0=0.34449	X0=0.34449	C0=0.00135281701628111	C1=0.000450939005427037
New	Line.0x008D3750_0x008EFEE8	Bus1=0x008D3750	Bus2=0x008EFEE8	Length=0.03048	phases=3	R1=0.11483	X1=0.11483	R0=0.34449	X0=0.34449	C0=0.00135281701628111	C1=0.000450939005427037
New	Line.0x008D3908_0x0089F960	Bus1=0x008D3908	Bus2=0x0089F960	Length=0.033831	phases=3	R1=0.2231	X1=0.21982	R0=0.66929	X0=0.65945	C0=0.00135281701628111	C1=0.000450939005427037
New	Line.0x008D3C78_0x008CE4A8	Bus1=0x008D3C78	Bus2=0x008CE4A8	Length=0.01818	phases=3	R1=0.11483	X1=0.11483	R0=0.34449	X0=0.34449	C0=0.00135281701628111	C1=0.000450939005427037
New	Line.0x008D3FE8_0x008C9598	Bus1=0x008D3FE8	Bus2=0x008C9598	Length=0.024384	phases=3	R1=0.11483	X1=0.11483	R0=0.34449	X0=0.34449	C0=0.00135281701628111	C1=0.000450939005427037
New	Line.0x008D3FE8_0x008E4670	Bus1=0x008D3FE8	Bus2=0x008E4670	Length=0.00457566	phases=3	R1=0.2231	X1=0.21982	R0=0.66929	X0=0.65945	C0=0.00135281701628111	C1=0.000450939005427037
New	Line.0x008D4A38_0x008B82C0	Bus1=0x008D4A38	Bus2=0x008B82C0	Length=0.023896	phases=3	R1=0.11483	X1=0.11483	R0=0.34449	X0=0.34449	C0=0.00135281701628111	C1=0.000450939005427037
New	Line.0x008D4A38_0x008EAF48	Bus1=0x008D4A38	Bus2=0x008EAF48	Length=0.006857	phases=3	R1=0.11483	X1=0.11483	R0=0.34449	X0=0.34449	C0=0.00135281701628111	C1=0.000450939005427037
New	Line.0x008D52D0_0x008C5E98	Bus1=0x008D52D0	Bus2=0x008C5E98	Length=0.026505	phases=3	R1=0.11483	X1=0.11483	R0=0.34449	X0=0.34449	C0=0.00135281701628111	C1=0.000450939005427037
New	Line.0x008D52D0_0x008E5430	Bus1=0x008D52D0	Bus2=0x008E5430	Length=0.026507	phases=3	R1=0.11483	X1=0.11483	R0=0.34449	X0=0.34449	C0=0.00135281701628111	C1=0.000450939005427037
New	Line.0x008D57F8_0x008CAA38	Bus1=0x008D57F8	Bus2=0x008CAA38	Length=0.0319105	phases=3	R1=1.12861	X1=0.33793	R0=3.38583	X0=1.01378	C0=0.000636619772367581	C1=0.000212206590789194
New	Line.0x008D59B0_0x008EFD30	Bus1=0x008D59B0	Bus2=0x008EFD30	Length=0.126462	phases=3	R1=0.23852	X1=0.3729	R0=0.71555	X0=1.11871	C0=5.30516476972985E-05	C1=2.65258238486492E-05
New	Line.0x008D6090_0x008DAE88	Bus1=0x008D6090	Bus2=0x008DAE88	Length=0.006858	phases=3	R1=0.11483	X1=0.11483	R0=0.34449	X0=0.34449	C0=0.00135281701628111	C1=0.000450939005427037
New	Line.0x008D6090_0x008E2378	Bus1=0x008D6090	Bus2=0x008E2378	Length=0.023896	phases=3	R1=0.11483	X1=0.11483	R0=0.34449	X0=0.34449	C0=0.00135281701628111	C1=0.000450939005427037
New	Line.0x008D6248_0x008D57F8	Bus1=0x008D6248	Bus2=0x008D57F8	Length=0.195283	phases=3	R1=1.12861	X1=0.33793	R0=3.38583	X0=1.01378	C0=0.000636619772367581	C1=0.000212206590789194
New	Line.0x008D65B8_0x008E7BB8	Bus1=0x008D65B8	Bus2=0x008E7BB8	Length=0.0778712	phases=3	R1=0.0853	X1=0.11155	R0=0.25591	X0=0.33465	C0=0.00135281701628111	C1=0.000450939005427037
New	Line.0x008D6928_0x008C7180	Bus1=0x008D6928	Bus2=0x008C7180	Length=0.030754	phases=3	R1=0.11483	X1=0.11483	R0=0.34449	X0=0.34449	C0=0.00135281701628111	C1=0.000450939005427037
New	Line.0x008D6928_0x008CF948	Bus1=0x008D6928	Bus2=0x008CF948	Length=0.006858	phases=3	R1=0.11483	X1=0.11483	R0=0.34449	X0=0.34449	C0=0.00135281701628111	C1=0.000450939005427037
New	Line.0x008D7378_0x008E1400	Bus1=0x008D7378	Bus2=0x008E1400	Length=0.018281	phases=3	R1=0.11483	X1=0.11483	R0=0.34449	X0=0.34449	C0=0.00135281701628111	C1=0.000450939005427037
New	Line.0x008D7A58_0x008E2908	Bus1=0x008D7A58	Bus2=0x008E2908	Length=0.034797	phases=3	R1=0.0853	X1=0.11155	R0=0.25591	X0=0.33465	C0=0.00135281701628111	C1=0.000450939005427037
New	Line.0x008D84A8_0x008C2D28	Bus1=0x008D84A8	Bus2=0x008C2D28	Length=0.022098	phases=3	R1=0.23852	X1=0.3729	R0=0.71555	X0=1.11871	C0=5.30516476972985E-05	C1=2.65258238486492E-05
New	Line.0x008D8818_0x008D3750	Bus1=0x008D8818	Bus2=0x008D3750	Length=0.023805	phases=3	R1=0.11483	X1=0.11483	R0=0.34449	X0=0.34449	C0=0.00135281701628111	C1=0.000450939005427037
New	Line.0x008D8B88_0x008E3C20	Bus1=0x008D8B88	Bus2=0x008E3C20	Length=0.019049	phases=3	R1=0.11483	X1=0.11483	R0=0.34449	X0=0.34449	C0=0.00135281701628111	C1=0.000450939005427037
New	Line.0x008DAB18_0x008D5B68	Bus1=0x008DAB18	Bus2=0x008D5B68	Length=0.027433	phases=3	R1=0.11483	X1=0.11483	R0=0.34449	X0=0.34449	C0=0.00135281701628111	C1=0.000450939005427037
New	Line.0x008DAB18_0x008DEFE8	Bus1=0x008DAB18	Bus2=0x008DEFE8	Length=0.027433	phases=3	R1=0.11483	X1=0.11483	R0=0.34449	X0=0.34449	C0=0.00135281701628111	C1=0.000450939005427037
New	Line.0x008DAE88_0x008C6AA0	Bus1=0x008DAE88	Bus2=0x008C6AA0	Length=0.027432	phases=3	R1=0.11483	X1=0.11483	R0=0.34449	X0=0.34449	C0=0.00135281701628111	C1=0.000450939005427037
New	Line.0x008DAE88_0x008E6DF8	Bus1=0x008DAE88	Bus2=0x008E6DF8	Length=0.027432	phases=3	R1=0.11483	X1=0.11483	R0=0.34449	X0=0.34449	C0=0.00135281701628111	C1=0.000450939005427037
New	Line.0x008DB3B0_0x008E7D70	Bus1=0x008DB3B0	Bus2=0x008E7D70	Length=0.00515645	phases=3	R1=0.23852	X1=0.3729	R0=0.71555	X0=1.11871	C0=5.30516476972985E-05	C1=2.65258238486492E-05
New	Line.0x008DBA90_0x008E4828	Bus1=0x008DBA90	Bus2=0x008E4828	Length=0.019049	phases=3	R1=0.11483	X1=0.11483	R0=0.34449	X0=0.34449	C0=0.00135281701628111	C1=0.000450939005427037
New	Line.0x008DBE00_0x008D4DA8	Bus1=0x008DBE00	Bus2=0x008D4DA8	Length=0.003812	phases=3	R1=0.0853	X1=0.11155	R0=0.25591	X0=0.33465	C0=0.00135281701628111	C1=0.000450939005427037
New	Line.0x008DC178_0x0089C5D0	Bus1=0x008DC178	Bus2=0x0089C5D0	Length=0.027432	phases=3	R1=0.11483	X1=0.11483	R0=0.34449	X0=0.34449	C0=0.00135281701628111	C1=0.000450939005427037
New	Line.0x008DC178_0x008DC6A0	Bus1=0x008DC178	Bus2=0x008DC6A0	Length=0.027433	phases=3	R1=0.11483	X1=0.11483	R0=0.34449	X0=0.34449	C0=0.00135281701628111	C1=0.000450939005427037
New	Line.0x008DCA10_0x008D1A10	Bus1=0x008DCA10	Bus2=0x008D1A10	Length=0.019202	phases=3	R1=0.11483	X1=0.11483	R0=0.34449	X0=0.34449	C0=0.00135281701628111	C1=0.000450939005427037
New	Line.0x008DE070_0x008E1770	Bus1=0x008DE070	Bus2=0x008E1770	Length=0.018281	phases=3	R1=0.11483	X1=0.11483	R0=0.34449	X0=0.34449	C0=0.00135281701628111	C1=0.000450939005427037
New	Line.0x008DFA38_0x008D0FA0	Bus1=0x008DFA38	Bus2=0x008D0FA0	Length=0.0209422	phases=3	R1=0.23852	X1=0.3729	R0=0.71555	X0=1.11871	C0=5.30516476972985E-05	C1=2.65258238486492E-05
New	Line.0x008DFDA8_0x0089C418	Bus1=0x008DFDA8	Bus2=0x0089C418	Length=0.00899172	phases=3	R1=1.12861	X1=0.33793	R0=3.38583	X0=1.01378	C0=0.000636619772367581	C1=0.000212206590789194
New	Line.0x008DFDA8_0x008DFA38	Bus1=0x008DFDA8	Bus2=0x008DFA38	Length=0.0278704	phases=3	R1=0.23852	X1=0.3729	R0=0.71555	X0=1.11871	C0=5.30516476972985E-05	C1=2.65258238486492E-05
New	Line.0x008E0ED8_0x008B87E8	Bus1=0x008E0ED8	Bus2=0x008B87E8	Length=0.019049	phases=3	R1=0.11483	X1=0.11483	R0=0.34449	X0=0.34449	C0=0.00135281701628111	C1=0.000450939005427037
New	Line.0x008E1C98_0x008E3A68	Bus1=0x008E1C98	Bus2=0x008E3A68	Length=0.006889	phases=3	R1=0.11483	X1=0.11483	R0=0.34449	X0=0.34449	C0=0.00135281701628111	C1=0.000450939005427037
New	Line.0x008E1C98_0x008E50C0	Bus1=0x008E1C98	Bus2=0x008E50C0	switch=yes enabled=false
!New	Line.0x008E1C98_0x008E50C0	Bus1=0x008E1C98	Bus2=0x008E50C0	Length=0.033395	phases=3	R1=0.11483	X1=0.11483	R0=0.34449	X0=0.34449	C0=0.00135281701628111	C1=0.000450939005427037
New	Line.0x008E1C98_0x008EE1B0	Bus1=0x008E1C98	Bus2=0x008EE1B0	Length=0.024384	phases=3	R1=0.11483	X1=0.11483	R0=0.34449	X0=0.34449	C0=0.00135281701628111	C1=0.000450939005427037
New	Line.0x008E1E50_0x008B8478	Bus1=0x008E1E50	Bus2=0x008B8478	Length=0.033394	phases=3	R1=0.11483	X1=0.11483	R0=0.34449	X0=0.34449	C0=0.00135281701628111	C1=0.000450939005427037
New	Line.0x008E1E50_0x008B8B58	Bus1=0x008E1E50	Bus2=0x008B8B58	Length=0.024106	phases=3	R1=0.11483	X1=0.11483	R0=0.34449	X0=0.34449	C0=0.00135281701628111	C1=0.000450939005427037
New	Line.0x008E1E50_0x008E9210	Bus1=0x008E1E50	Bus2=0x008E9210	Length=0.006889	phases=3	R1=0.11483	X1=0.11483	R0=0.34449	X0=0.34449	C0=0.00135281701628111	C1=0.000450939005427037
New	Line.0x008E21C0_0x0089E830	Bus1=0x008E21C0	Bus2=0x0089E830	Length=0.027432	phases=3	R1=0.11483	X1=0.11483	R0=0.34449	X0=0.34449	C0=0.00135281701628111	C1=0.000450939005427037
New	Line.0x008E21C0_0x008C5448	Bus1=0x008E21C0	Bus2=0x008C5448	Length=0.027432	phases=3	R1=0.11483	X1=0.11483	R0=0.34449	X0=0.34449	C0=0.00135281701628111	C1=0.000450939005427037
New	Line.0x008E2378_0x008B8630	Bus1=0x008E2378	Bus2=0x008B8630	Length=0.023896	phases=3	R1=0.11483	X1=0.11483	R0=0.34449	X0=0.34449	C0=0.00135281701628111	C1=0.000450939005427037
New	Line.0x008E2378_0x008E21C0	Bus1=0x008E2378	Bus2=0x008E21C0	Length=0.006858	phases=3	R1=0.11483	X1=0.11483	R0=0.34449	X0=0.34449	C0=0.00135281701628111	C1=0.000450939005427037
New	Line.0x008E2908_0x008DBE00	Bus1=0x008E2908	Bus2=0x008DBE00	Length=0.013334	phases=3	R1=0.0853	X1=0.11155	R0=0.25591	X0=0.33465	C0=0.00135281701628111	C1=0.000450939005427037
New	Line.0x008E2908_0x008F3CD0	Bus1=0x008E2908	Bus2=0x008F3CD0	Length=0.013334	phases=3	R1=0.0853	X1=0.11155	R0=0.25591	X0=0.33465	C0=0.00135281701628111	C1=0.000450939005427037
New	Line.0x008E31A0_0x008EF498	Bus1=0x008E31A0	Bus2=0x008EF498	Length=0.026569	phases=3	R1=0.11483	X1=0.11483	R0=0.34449	X0=0.34449	C0=0.00135281701628111	C1=0.000450939005427037
New	Line.0x008E36C8_0x008E7A00	Bus1=0x008E36C8	Bus2=0x008E7A00	Length=0.0813527	phases=3	R1=1.12861	X1=0.33793	R0=3.38583	X0=1.01378	C0=0.000636619772367581	C1=0.000212206590789194
New	Line.0x008E3A68_0x008C9AC0	Bus1=0x008E3A68	Bus2=0x008C9AC0	Length=0.026507	phases=3	R1=0.11483	X1=0.11483	R0=0.34449	X0=0.34449	C0=0.00135281701628111	C1=0.000450939005427037
New	Line.0x008E3A68_0x008DA0C8	Bus1=0x008E3A68	Bus2=0x008DA0C8	Length=0.026506	phases=3	R1=0.11483	X1=0.11483	R0=0.34449	X0=0.34449	C0=0.00135281701628111	C1=0.000450939005427037
New	Line.0x008E3DD8_0x008E1090	Bus1=0x008E3DD8	Bus2=0x008E1090	Length=0.018281	phases=3	R1=0.11483	X1=0.11483	R0=0.34449	X0=0.34449	C0=0.00135281701628111	C1=0.000450939005427037
New	Line.0x008E4148_0x008D3908	Bus1=0x008E4148	Bus2=0x008D3908	Length=0.024384	phases=3	R1=0.11483	X1=0.11483	R0=0.34449	X0=0.34449	C0=0.00135281701628111	C1=0.000450939005427037
New	Line.0x008E4148_0x008DC178	Bus1=0x008E4148	Bus2=0x008DC178	Length=0.006857	phases=3	R1=0.11483	X1=0.11483	R0=0.34449	X0=0.34449	C0=0.00135281701628111	C1=0.000450939005427037
New	Line.0x008E4B98_0x008EE6D8	Bus1=0x008E4B98	Bus2=0x008EE6D8	Length=0.241526	phases=3	R1=0.2231	X1=0.21982	R0=0.66929	X0=0.65945	C0=0.00135281701628111	C1=0.000450939005427037
New	Line.0x008E55E8_0x008EF2E0	Bus1=0x008E55E8	Bus2=0x008EF2E0	Length=0.0191233	phases=3	R1=0.11483	X1=0.11483	R0=0.34449	X0=0.34449	C0=0.00135281701628111	C1=0.000450939005427037
New	Line.0x008E57A0_0x008EF650	Bus1=0x008E57A0	Bus2=0x008EF650	Length=0.00431308	phases=3	R1=0.23852	X1=0.3729	R0=0.71555	X0=1.11871	C0=5.30516476972985E-05	C1=2.65258238486492E-05
New	Line.0x008E5958_0x008E4F08	Bus1=0x008E5958	Bus2=0x008E4F08	Length=0.019049	phases=3	R1=0.11483	X1=0.11483	R0=0.34449	X0=0.34449	C0=0.00135281701628111	C1=0.000450939005427037
New	Line.0x008E5B10_0x008C4F20	Bus1=0x008E5B10	Bus2=0x008C4F20	Length=0.027433	phases=3	R1=0.11483	X1=0.11483	R0=0.34449	X0=0.34449	C0=0.00135281701628111	C1=0.000450939005427037
New	Line.0x008E5B10_0x008CB640	Bus1=0x008E5B10	Bus2=0x008CB640	Length=0.027432	phases=3	R1=0.11483	X1=0.11483	R0=0.34449	X0=0.34449	C0=0.00135281701628111	C1=0.000450939005427037
New	Line.0x008E5E80_0x008D2B40	Bus1=0x008E5E80	Bus2=0x008D2B40	Length=0.019202	phases=3	R1=0.11483	X1=0.11483	R0=0.34449	X0=0.34449	C0=0.00135281701628111	C1=0.000450939005427037
New	Line.0x008E6038_0x008DFDA8	Bus1=0x008E6038	Bus2=0x008DFDA8	Length=0.0567954	phases=3	R1=0.23852	X1=0.3729	R0=0.71555	X0=1.11871	C0=5.30516476972985E-05	C1=2.65258238486492E-05
New	Line.0x008E61F0_0x008D65B8	Bus1=0x008E61F0	Bus2=0x008D65B8	Length=0.294178	phases=3	R1=0.0853	X1=0.11155	R0=0.25591	X0=0.33465	C0=0.00135281701628111	C1=0.000450939005427037
New	Line.0x008E63A8_0x008E55E8	Bus1=0x008E63A8	Bus2=0x008E55E8	Length=0.033148	phases=3	R1=0.11483	X1=0.11483	R0=0.34449	X0=0.34449	C0=0.00135281701628111	C1=0.000450939005427037
New	Line.0x008E6718_0x0089DF98	Bus1=0x008E6718	Bus2=0x0089DF98	Length=0.00762	phases=3	R1=0.2231	X1=0.21982	R0=0.66929	X0=0.65945	C0=0.00135281701628111	C1=0.000450939005427037
New	Line.0x008E6718_0x008CA510	Bus1=0x008E6718	Bus2=0x008CA510	Length=0.0612665	phases=3	R1=0.34777	X1=0.13451	R0=1.04331	X0=0.40354	C0=0.000954929658551372	C1=0.000318309886183791
...