tests/data/upgrade-models/M1/Xfmr_Only.dss
New	Transformer.Xfmr_AE191606_A	phases=1	buses=(0x008DDEB0.1,0x008DDEB0_s.1)	kvs=(7.2,0.24)	kvas=(25,25)	xhl=1.57	%loadloss=1.31292	%noloadloss=0.2492
New	Transformer.Xfmr_AE300103_A	phases=1	buses=(0x008DCBC8.1,0x008DCBC8_s.1)	kvs=(7.2,0.24)	kvas=(75,75)	xhl=1.84	%loadloss=0.836	%noloadloss=0.146666666666667
New	Transformer.Xfmr_AE300104_A	phases=1	buses=(0x008DD0F0.1,0x008DD0F0_s.1)	kvs=(7.2,0.24)	kvas=(75,75)	xhl=1.73	%loadloss=0.777764583333334	%noloadloss=0.16096875
New	Transformer.Xfmr_AE300105_C	phases=1	buses=(0x008E7F28.3,0x008E7F28_s.3)	kvs=(7.2,0.24)	kvas=(75,75)	xhl=1.54	%loadloss=0.707333333333333	%noloadloss=0.1852
New	Transformer.Xfmr_AE300106_C	phases=1	buses=(0x0089EBA0.3,0x0089EBA0_s.3)	kvs=(7.2,0.24)	kvas=(75,75)	xhl=1.83	%loadloss=0.801733333333333	%noloadloss=0.153866666666667
New	Transformer.Xfmr_AE300107_C	phases=1	buses=(0x0089F280.3,0x0089F280_s.3)	kvs=(7.2,0.24)	kvas=(75,75)	xhl=1.84	%loadloss=0.8248	%noloadloss=0.151333333333333
New	Transformer.Xfmr_AE300108_B	phases=1	buses=(0x008C7A18.2,0x008C7A18_s.2)	kvs=(7.2,0.24)	kvas=(75,75)	xhl=1.87	%loadloss=0.839066666666667	%noloadloss=0.1476
New	Transformer.Xfmr_AE300109_B	phases=1	buses=(0x008CA358.2,0x008CA358_s.2)	kvs=(7.2,0.24)	kvas=(50,50)	xhl=1.84	%loadloss=0.954	%noloadloss=0.186
New	Transformer.Xfmr_AE300110_A	phases=1	buses=(0x008CA6C8.1,0x008CA6C8_s.1)	kvs=(7.2,0.24)	kvas=(75,75)	xhl=1.84	%loadloss=0.806	%noloadloss=0.15
New	Transformer.Xfmr_AE300111_A	phases=1	buses=(0x008C9070.1,0x008C9070_s.1)	kvs=(7.2,0.24)	kvas=(75,75)	xhl=1.54	%loadloss=0.7	%noloadloss=0.189333333333333
New	Transformer.Xfmr_AE300114_C	phases=1	buses=(0x008DEE30.3,0x008DEE30_s.3)	kvs=(7.2,0.24)	kvas=(25,25)	xhl=2.04	%loadloss=1.304	%noloadloss=0.228
New	Transformer.Xfmr_AE300115_C	phases=1	buses=(0x008E8450.3,0x008E8450_s.3)	kvs=(7.2,0.24)	kvas=(50,50)	xhl=1.5	%loadloss=0.890680425531915	%noloadloss=0.185791063829787
New	Transformer.Xfmr_AE300116_C	phases=1	buses=(0x008C4D68.3,0x008C4D68_s.3)	kvs=(7.2,0.24)	kvas=(25,25)	xhl=2.03	%loadloss=1.256	%noloadloss=0.248
New	Transformer.Xfmr_AE300117_C	phases=1	buses=(0x008DF6C8.3,0x008DF6C8_s.3)	kvs=(7.2,0.24)	kvas=(75,75)	xhl=1.8	%loadloss=0.613333333333333	%noloadloss=0.182666666666667
New	Transformer.Xfmr_AE300118_C	phases=1	buses=(0x008E8978.3,0x008E8978_s.3)	kvs=(7.2,0.24)	kvas=(75,75)	xhl=1.82	%loadloss=0.82	%noloadloss=0.149333333333333
New	Transformer.Xfmr_AE300119_C	phases=1	buses=(0x008E87C0.3,0x008E87C0_s.3)	kvs=(7.2,0.24)	kvas=(75,75)	xhl=1.82	%loadloss=0.845333333333333	%noloadloss=0.149333333333333
New	Transformer.Xfmr_AE300120_C	phases=1	buses=(0x008DA5F0.3,0x008DA5F0_s.3)	kvs=(7.2,0.24)	kvas=(75,75)	xhl=1.6	%loadloss=0.777764583333334	%noloadloss=0.16096875
New	Transformer.Xfmr_AE300121_C	phases=1	buses=(0x008EA188.3,0x008EA188_s.3)	kvs=(7.2,0.24)	kvas=(50,50)	xhl=1.6	%loadloss=0.890680425531915	%noloadloss=0.185791063829787
New	Transformer.Xfmr_AE300122_A	phases=1	buses=(0x008E9E18.1,0x008E9E18_s.1)	kvs=(7.2,0.24)	kvas=(75,75)	xhl=1.85	%loadloss=0.8084	%noloadloss=0.150933333333333
New	Transformer.Xfmr_AE300123_A	phases=1	buses=(0x008DBC48.1,0x008DBC48_s.1)	kvs=(7.2,0.24)	kvas=(50,50)	xhl=1.9	%loadloss=0.962	%noloadloss=0.184
New	Transformer.Xfmr_AE300124_B	phases=1	buses=(0x008DFBF0.2,0x008DFBF0_s.2)	kvs=(7.2,0.24)	kvas=(75,75)	xhl=1.7	%loadloss=0.777764583333334	%noloadloss=0.16096875
New	Transformer.Xfmr_AE300125_B	phases=1	buses=(0x008D0398.2,0x008D0398_s.2)	kvs=(7.2,0.24)	kvas=(50,50)	xhl=1.88	%loadloss=0.94	%noloadloss=0.1888
New	Transformer.Xfmr_AE300134_A	phases=1	buses=(0x008C5290.1,0x008C5290_s.1)	kvs=(7.2,0.24)	kvas=(50,50)	xhl=1.96	%loadloss=0.964	%noloadloss=0.18
New	Transformer.Xfmr_AE300135_A	phases=1	buses=(0x008C4BB0.1,0x008C4BB0_s.1)	kvs=(7.2,0.24)	kvas=(75,75)	xhl=1.6	%loadloss=0.705866666666667	%noloadloss=0.1824
New	Transformer.Xfmr_AE300136_A	phases=1	buses=(0x008DBFB8.1,0x008DBFB8_s.1)	kvs=(7.2,0.24)	kvas=(50,50)	xhl=1.83	%loadloss=0.944	%noloadloss=0.1842
New	Transformer.Xfmr_AE300142_B	phases=1	buses=(0x0089DDE0.2,0x0089DDE0_s.2)	kvs=(7.2,0.24)	kvas=(75,75)	xhl=3.6	%loadloss=0.777764583333334	%noloadloss=0.16096875
New	Transformer.Xfmr_AE300143_B	phases=1	buses=(0x0089D700.2,0x0089D700_s.2)	kvs=(7.2,0.24)	kvas=(25,25)	xhl=1.6	%loadloss=1.18748666666667	%noloadloss=0.2502
New	Transformer.Xfmr_AE300144_B	phases=1	buses=(0x0089E4C0.2,0x0089E4C0_s.2)	kvs=(7.2,0.24)	kvas=(25,25)	xhl=1.6	%loadloss=0.936	%noloadloss=0.276
New	Transformer.Xfmr_AE300145_B	phases=1	buses=(0x008C5970.2,0x008C5970_s.2)	kvs=(7.2,0.24)	kvas=(75,75)	xhl=1.9	%loadloss=0.826933333333333	%noloadloss=0.152533333333333
New	Transformer.Xfmr_AE300146_B	phases=1	buses=(0x0089D020.2,0x0089D020_s.2)	kvs=(7.2,0.24)	kvas=(50,50)	xhl=1.85	%loadloss=0.9338	%noloadloss=0.1884
New	Transformer.Xfmr_AE300147_B	phases=1	buses=(0x008C2B70.2,0x008C2B70_s.2)	kvs=(7.2,0.24)	kvas=(75,75)	xhl=1.89	%loadloss=0.8372	%noloadloss=0.146533333333333
...